# Top-energy pose of compounds ranked according to the score (given in kcal/mol).
@<TRIPOS>MOLECULE
ligand_9d375644e6_1_run_16.pdb
 70 72 0 0 0
SMALL
GASTEIGER

@<TRIPOS>ATOM
      1    C       11.3830   14.9900    2.2440 C.3     2  LIG2        0.0848
      2    C        9.2910   16.0320    2.8500 C.3     2  LIG2        0.0101
      3    C       10.2370   15.6070    5.7910 C.2     2  LIG2        0.4009
      4    C       10.3170   15.0140    3.3500 C.3     2  LIG2        0.1299
      5    C       10.9990   16.4830    7.9900 C.3     2  LIG2        0.0573
      6    C       10.4040   17.9360    8.3070 C.3     2  LIG2        0.0882
      7    C       12.4310   16.1030    8.5650 C.3     2  LIG2       -0.0066
      8    C       12.8440   14.7150    8.1550 C.ar    2  LIG2       -0.0455
      9    C       13.7050   14.5680    7.0090 C.ar    2  LIG2       -0.0585
     10    C       12.2620   13.5400    8.7680 C.ar    2  LIG2       -0.0585
     11    C       13.9690   13.2810    6.4230 C.ar    2  LIG2       -0.0615
     12    C       12.5460   12.2390    8.1810 C.ar    2  LIG2       -0.0615
     13    C       13.4000   12.1030    6.9970 C.ar    2  LIG2       -0.0617
     14    C        9.7490   18.2520    9.7260 C.3     2  LIG2        0.0483
     15    C        7.4180   17.8360    8.8450 C.3     2  LIG2        0.0229
     16    C        6.0520   18.1590    9.4340 C.3     2  LIG2       -0.0323
     17    C        8.6330   16.5230   12.7130 C.ar    2  LIG2        0.1056
     18    C        7.5360   16.8020   13.5940 C.ar    2  LIG2       -0.0336
     19    C        7.7760   16.9760   14.9890 C.ar    2  LIG2       -0.0392
     20    C        9.1110   16.8430   15.4700 C.ar    2  LIG2        0.0247
     21    C       10.1810   16.6350   14.5940 C.ar    2  LIG2       -0.0392
     22    C        9.9380   16.4740   13.2120 C.ar    2  LIG2       -0.0336
     23    C        6.0270   19.2620   10.5110 C.3     2  LIG2       -0.0615
     24    C        4.8390   18.1280    8.4870 C.3     2  LIG2       -0.0615
     25    C        9.8290   16.5500    1.5110 C.3     2  LIG2        0.0513
     26    N       11.0500   16.3000    6.5580 N.am    2  LIG2       -0.2754
     27    N        8.4380   17.6190   10.0000 N.3     2  LIG2       -0.1738
     28    N        9.3720   17.0360   16.7350 N.pl3   2  LIG2       -0.3580
     29    O       10.8840   15.5180    4.5600 O.3     2  LIG2       -0.4447
     30    O        9.1230   15.3160    6.0110 O.2     2  LIG2       -0.2265
     31    O       11.4270   18.8690    8.2320 O.3     2  LIG2       -0.3886
     32    O        9.4700   15.2750   10.6780 O.2     2  LIG2       -0.1528
     33    O        7.1300   15.5170   11.0460 O.2     2  LIG2       -0.1528
     34    O       11.1730   16.1260    1.3700 O.3     2  LIG2       -0.3760
     35    S        8.3920   16.1890   11.0550 S.O2    2  LIG2        0.0609
     36    H       11.2980   14.0830    1.6820 H       2  LIG2        0.0597
     37    H       12.3600   15.0390    2.6780 H       2  LIG2        0.0597
     38    H        9.1950   16.8370    3.5490 H       2  LIG2        0.0324
     39    H        8.3230   15.5900    2.7400 H       2  LIG2        0.0324
     40    H        9.9100   14.0440    3.5430 H       2  LIG2        0.0758
     41    H       10.3230   15.8350    8.5070 H       2  LIG2        0.0528
     42    H        9.6150   17.9770    7.5860 H       2  LIG2        0.0625
     43    H       12.4000   16.1550    9.6330 H       2  LIG2        0.0332
     44    H       13.1440   16.7950    8.1680 H       2  LIG2        0.0332
     45    H       14.1430   15.4070    6.5980 H       2  LIG2        0.0620
     46    H       11.6600   13.6220    9.6020 H       2  LIG2        0.0620
     47    H       14.5690   13.2090    5.5860 H       2  LIG2        0.0618
     48    H       12.1360   11.3940    8.6080 H       2  LIG2        0.0618
     49    H       13.5870   11.1750    6.5870 H       2  LIG2        0.0618
     50    H        9.6200   19.3120    9.7980 H       2  LIG2        0.0470
     51    H       10.4210   17.8390   10.4490 H       2  LIG2        0.0470
     52    H        7.7420   18.6490    8.2300 H       2  LIG2        0.0446
     53    H        7.3520   16.9470    8.2530 H       2  LIG2        0.0446
     54    H        5.8800   17.2650    9.9950 H       2  LIG2        0.0308
     55    H        6.5770   16.8760   13.2200 H       2  LIG2        0.0638
     56    H        7.0010   17.1930   15.6360 H       2  LIG2        0.0636
     57    H       11.1460   16.5990   14.9560 H       2  LIG2        0.0636
     58    H       10.7280   16.3200   12.5670 H       2  LIG2        0.0638
     59    H        6.1920   20.2140   10.0510 H       2  LIG2        0.0233
     60    H        6.7970   19.0750   11.2300 H       2  LIG2        0.0233
     61    H        5.0750   19.2610   10.9990 H       2  LIG2        0.0233
     62    H        4.8670   18.9820    7.8420 H       2  LIG2        0.0233
     63    H        3.9370   18.1450    9.0620 H       2  LIG2        0.0233
     64    H        4.8690   17.2350    7.8980 H       2  LIG2        0.0233
     65    H        9.7840   17.6190    1.4930 H       2  LIG2        0.0561
     66    H        9.2380   16.1660    0.7060 H       2  LIG2        0.0561
     67    H       11.7900   16.7530    6.0950 H       2  LIG2        0.1524
     68    H        8.6360   17.1850   17.3720 H       2  LIG2        0.1423
     69    H       10.3040   17.0320   17.0520 H       2  LIG2        0.1423
     70    H       11.1420   19.6190    7.6870 H       2  LIG2        0.2099
@<TRIPOS>BOND
     1    66    25    1
     2    34    25    1
     3    34     1    1
     4    65    25    1
     5    25     2    1
     6    36     1    1
     7     1    37    1
     8     1     4    1
     9    39     2    1
    10     2     4    1
    11     2    38    1
    12     4    40    1
    13     4    29    1
    14    29     3    1
    15    47    11    1
    16     3    30    2
    17     3    26   am
    18    67    26    1
    19    11    13   ar
    20    11     9   ar
    21    26     5    1
    22    49    13    1
    23    45     9    1
    24    13    12   ar
    25     9     8   ar
    26    42     6    1
    27    70    31    1
    28    62    24    1
    29    64    24    1
    30     5     6    1
    31     5    41    1
    32     5     7    1
    33     8     7    1
    34     8    10   ar
    35    44     7    1
    36    12    48    1
    37    12    10   ar
    38    52    15    1
    39    31     6    1
    40    53    15    1
    41     6    14    1
    42    24    63    1
    43    24    16    1
    44     7    43    1
    45    10    46    1
    46    15    16    1
    47    15    27    1
    48    16    54    1
    49    16    23    1
    50    14    50    1
    51    14    27    1
    52    14    51    1
    53    27    35    1
    54    59    23    1
    55    23    61    1
    56    23    60    1
    57    32    35    2
    58    33    35    2
    59    35    17    1
    60    58    22    1
    61    17    22   ar
    62    17    18   ar
    63    22    21   ar
    64    55    18    1
    65    18    19   ar
    66    21    57    1
    67    21    20   ar
    68    19    20   ar
    69    19    56    1
    70    20    28    1
    71    28    69    1
    72    28    68    1
