@<TRIPOS>MOLECULE
ligand_9d375644e6_1_run_16.pdb
 70 72 0 0 0
SMALL
GASTEIGER

@<TRIPOS>ATOM
      1    C       11.3830   14.9900    2.2440 C.3     2  LIG2        0.0848
      2    C        9.2910   16.0320    2.8500 C.3     2  LIG2        0.0101
      3    C       10.2370   15.6070    5.7910 C.2     2  LIG2        0.4009
      4    C       10.3170   15.0140    3.3500 C.3     2  LIG2        0.1299
      5    C       10.9990   16.4830    7.9900 C.3     2  LIG2        0.0573
      6    C       10.4040   17.9360    8.3070 C.3     2  LIG2        0.0882
      7    C       12.4310   16.1030    8.5650 C.3     2  LIG2       -0.0066
      8    C       12.8440   14.7150    8.1550 C.ar    2  LIG2       -0.0455
      9    C       13.7050   14.5680    7.0090 C.ar    2  LIG2       -0.0585
     10    C       12.2620   13.5400    8.7680 C.ar    2  LIG2       -0.0585
     11    C       13.9690   13.2810    6.4230 C.ar    2  LIG2       -0.0615
     12    C       12.5460   12.2390    8.1810 C.ar    2  LIG2       -0.0615
     13    C       13.4000   12.1030    6.9970 C.ar    2  LIG2       -0.0617
     14    C        9.7490   18.2520    9.7260 C.3     2  LIG2        0.0483
     15    C        7.4180   17.8360    8.8450 C.3     2  LIG2        0.0229
     16    C        6.0520   18.1590    9.4340 C.3     2  LIG2       -0.0323
     17    C        8.6330   16.5230   12.7130 C.ar    2  LIG2        0.1056
     18    C        7.5360   16.8020   13.5940 C.ar    2  LIG2       -0.0336
     19    C        7.7760   16.9760   14.9890 C.ar    2  LIG2       -0.0392
     20    C        9.1110   16.8430   15.4700 C.ar    2  LIG2        0.0247
     21    C       10.1810   16.6350   14.5940 C.ar    2  LIG2       -0.0392
     22    C        9.9380   16.4740   13.2120 C.ar    2  LIG2       -0.0336
     23    C        6.0270   19.2620   10.5110 C.3     2  LIG2       -0.0615
     24    C        4.8390   18.1280    8.4870 C.3     2  LIG2       -0.0615
     25    C        9.8290   16.5500    1.5110 C.3     2  LIG2        0.0513
     26    N       11.0500   16.3000    6.5580 N.am    2  LIG2       -0.2754
     27    N        8.4380   17.6190   10.0000 N.3     2  LIG2       -0.1738
     28    N        9.3720   17.0360   16.7350 N.pl3   2  LIG2       -0.3580
     29    O       10.8840   15.5180    4.5600 O.3     2  LIG2       -0.4447
     30    O        9.1230   15.3160    6.0110 O.2     2  LIG2       -0.2265
     31    O       11.4270   18.8690    8.2320 O.3     2  LIG2       -0.3886
     32    O        9.4700   15.2750   10.6780 O.2     2  LIG2       -0.1528
     33    O        7.1300   15.5170   11.0460 O.2     2  LIG2       -0.1528
     34    O       11.1730   16.1260    1.3700 O.3     2  LIG2       -0.3760
     35    S        8.3920   16.1890   11.0550 S.O2    2  LIG2        0.0609
     36    H       11.2980   14.0830    1.6820 H       2  LIG2        0.0597
     37    H       12.3600   15.0390    2.6780 H       2  LIG2        0.0597
     38    H        9.1950   16.8370    3.5490 H       2  LIG2        0.0324
     39    H        8.3230   15.5900    2.7400 H       2  LIG2        0.0324
     40    H        9.9100   14.0440    3.5430 H       2  LIG2        0.0758
     41    H       10.3230   15.8350    8.5070 H       2  LIG2        0.0528
     42    H        9.6150   17.9770    7.5860 H       2  LIG2        0.0625
     43    H       12.4000   16.1550    9.6330 H       2  LIG2        0.0332
     44    H       13.1440   16.7950    8.1680 H       2  LIG2        0.0332
     45    H       14.1430   15.4070    6.5980 H       2  LIG2        0.0620
     46    H       11.6600   13.6220    9.6020 H       2  LIG2        0.0620
     47    H       14.5690   13.2090    5.5860 H       2  LIG2        0.0618
     48    H       12.1360   11.3940    8.6080 H       2  LIG2        0.0618
     49    H       13.5870   11.1750    6.5870 H       2  LIG2        0.0618
     50    H        9.6200   19.3120    9.7980 H       2  LIG2        0.0470
     51    H       10.4210   17.8390   10.4490 H       2  LIG2        0.0470
     52    H        7.7420   18.6490    8.2300 H       2  LIG2        0.0446
     53    H        7.3520   16.9470    8.2530 H       2  LIG2        0.0446
     54    H        5.8800   17.2650    9.9950 H       2  LIG2        0.0308
     55    H        6.5770   16.8760   13.2200 H       2  LIG2        0.0638
     56    H        7.0010   17.1930   15.6360 H       2  LIG2        0.0636
     57    H       11.1460   16.5990   14.9560 H       2  LIG2        0.0636
     58    H       10.7280   16.3200   12.5670 H       2  LIG2        0.0638
     59    H        6.1920   20.2140   10.0510 H       2  LIG2        0.0233
     60    H        6.7970   19.0750   11.2300 H       2  LIG2        0.0233
     61    H        5.0750   19.2610   10.9990 H       2  LIG2        0.0233
     62    H        4.8670   18.9820    7.8420 H       2  LIG2        0.0233
     63    H        3.9370   18.1450    9.0620 H       2  LIG2        0.0233
     64    H        4.8690   17.2350    7.8980 H       2  LIG2        0.0233
     65    H        9.7840   17.6190    1.4930 H       2  LIG2        0.0561
     66    H        9.2380   16.1660    0.7060 H       2  LIG2        0.0561
     67    H       11.7900   16.7530    6.0950 H       2  LIG2        0.1524
     68    H        8.6360   17.1850   17.3720 H       2  LIG2        0.1423
     69    H       10.3040   17.0320   17.0520 H       2  LIG2        0.1423
     70    H       11.1420   19.6190    7.6870 H       2  LIG2        0.2099
@<TRIPOS>BOND
     1    66    25    1
     2    34    25    1
     3    34     1    1
     4    65    25    1
     5    25     2    1
     6    36     1    1
     7     1    37    1
     8     1     4    1
     9    39     2    1
    10     2     4    1
    11     2    38    1
    12     4    40    1
    13     4    29    1
    14    29     3    1
    15    47    11    1
    16     3    30    2
    17     3    26   am
    18    67    26    1
    19    11    13   ar
    20    11     9   ar
    21    26     5    1
    22    49    13    1
    23    45     9    1
    24    13    12   ar
    25     9     8   ar
    26    42     6    1
    27    70    31    1
    28    62    24    1
    29    64    24    1
    30     5     6    1
    31     5    41    1
    32     5     7    1
    33     8     7    1
    34     8    10   ar
    35    44     7    1
    36    12    48    1
    37    12    10   ar
    38    52    15    1
    39    31     6    1
    40    53    15    1
    41     6    14    1
    42    24    63    1
    43    24    16    1
    44     7    43    1
    45    10    46    1
    46    15    16    1
    47    15    27    1
    48    16    54    1
    49    16    23    1
    50    14    50    1
    51    14    27    1
    52    14    51    1
    53    27    35    1
    54    59    23    1
    55    23    61    1
    56    23    60    1
    57    32    35    2
    58    33    35    2
    59    35    17    1
    60    58    22    1
    61    17    22   ar
    62    17    18   ar
    63    22    21   ar
    64    55    18    1
    65    18    19   ar
    66    21    57    1
    67    21    20   ar
    68    19    20   ar
    69    19    56    1
    70    20    28    1
    71    28    69    1
    72    28    68    1
@<TRIPOS>MOLECULE
ligand_9d375644e6_1_run_16.pdb
 70 72 0 0 0
SMALL
GASTEIGER

@<TRIPOS>ATOM
      1    C       11.3870   15.2120    2.2090 C.3     2  LIG2        0.0848
      2    C        9.1740   16.0340    2.7200 C.3     2  LIG2        0.0101
      3    C       10.1380   15.7000    5.7340 C.2     2  LIG2        0.4009
      4    C       10.2910   15.1570    3.2850 C.3     2  LIG2        0.1299
      5    C       10.9020   16.4060    7.9930 C.3     2  LIG2        0.0573
      6    C       10.2370   17.7870    8.4570 C.3     2  LIG2        0.0882
      7    C       12.3650   16.0540    8.5050 C.3     2  LIG2       -0.0066
      8    C       12.8140   14.7020    8.0180 C.ar    2  LIG2       -0.0455
      9    C       13.7090   14.6440    6.8900 C.ar    2  LIG2       -0.0585
     10    C       12.2350   13.4800    8.5350 C.ar    2  LIG2       -0.0585
     11    C       14.0120   13.4030    6.2290 C.ar    2  LIG2       -0.0615
     12    C       12.5580   12.2260    7.8730 C.ar    2  LIG2       -0.0615
     13    C       13.4490   12.1810    6.7080 C.ar    2  LIG2       -0.0617
     14    C       10.0090   18.0970   10.0050 C.3     2  LIG2        0.0483
     15    C        9.4410   17.0850   12.2490 C.3     2  LIG2        0.0229
     16    C       10.4420   15.9620   12.4760 C.3     2  LIG2       -0.0323
     17    C        6.4470   18.3060   10.2190 C.ar    2  LIG2        0.1056
     18    C        5.4620   18.4330   11.2530 C.ar    2  LIG2       -0.0336
     19    C        4.7100   19.6400   11.3690 C.ar    2  LIG2       -0.0392
     20    C        4.9830   20.6990   10.4560 C.ar    2  LIG2        0.0247
     21    C        5.9000   20.5410    9.4130 C.ar    2  LIG2       -0.0392
     22    C        6.6340   19.3400    9.2970 C.ar    2  LIG2       -0.0336
     23    C       10.8950   15.7480   13.9340 C.3     2  LIG2       -0.0615
     24    C       10.2840   14.6820   11.6360 C.3     2  LIG2       -0.0615
     25    C        9.6910   16.5610    1.3760 C.3     2  LIG2        0.0513
     26    N       10.9300   16.3610    6.5490 N.am    2  LIG2       -0.2754
     27    N        9.1050   17.1770   10.7330 N.3     2  LIG2       -0.1738
     28    N        4.2850   21.8020   10.5080 N.pl3   2  LIG2       -0.3580
     29    O       10.7620   15.7630    4.4890 O.3     2  LIG2       -0.4447
     30    O        9.0460   15.3300    5.9440 O.2     2  LIG2       -0.2265
     31    O       11.0480   18.8360    8.0550 O.3     2  LIG2       -0.3886
     32    O        6.7940   15.8900   10.8850 O.2     2  LIG2       -0.1528
     33    O        7.4230   16.6260    8.7100 O.2     2  LIG2       -0.1528
     34    O       11.0770   16.2860    1.2870 O.3     2  LIG2       -0.3760
     35    S        7.4590   16.9340   10.1060 S.O2    2  LIG2        0.0609
     36    H       11.4200   14.2830    1.6810 H       2  LIG2        0.0597
     37    H       12.3380   15.3870    2.6660 H       2  LIG2        0.0597
     38    H        8.9670   16.8470    3.3840 H       2  LIG2        0.0324
     39    H        8.2640   15.4830    2.6010 H       2  LIG2        0.0324
     40    H        9.9890   14.1540    3.5050 H       2  LIG2        0.0758
     41    H       10.2740   15.6750    8.4570 H       2  LIG2        0.0528
     42    H        9.2670   17.6860    8.0160 H       2  LIG2        0.0625
     43    H       12.3670   16.0550    9.5750 H       2  LIG2        0.0332
     44    H       13.0390   16.7890    8.1190 H       2  LIG2        0.0332
     45    H       14.1440   15.5150    6.5480 H       2  LIG2        0.0620
     46    H       11.6080   13.4980    9.3540 H       2  LIG2        0.0620
     47    H       14.6370   13.3960    5.4080 H       2  LIG2        0.0618
     48    H       12.1520   11.3480    8.2310 H       2  LIG2        0.0618
     49    H       13.6640   11.2850    6.2440 H       2  LIG2        0.0618
     50    H        9.6010   19.0830   10.0830 H       2  LIG2        0.0470
     51    H       10.9680   17.9780   10.4640 H       2  LIG2        0.0470
     52    H        9.8640   18.0120   12.5780 H       2  LIG2        0.0446
     53    H        8.5480   16.8860   12.8030 H       2  LIG2        0.0446
     54    H       11.3060   16.3910   12.0120 H       2  LIG2        0.0308
     55    H        5.2980   17.6550   11.9110 H       2  LIG2        0.0638
     56    H        3.9850   19.7430   12.0960 H       2  LIG2        0.0636
     57    H        6.0410   21.3000    8.7280 H       2  LIG2        0.0636
     58    H        7.3110   19.2250    8.5280 H       2  LIG2        0.0638
     59    H       10.0940   15.3170   14.4970 H       2  LIG2        0.0233
     60    H       11.1670   16.6900   14.3650 H       2  LIG2        0.0233
     61    H       11.7390   15.0910   13.9530 H       2  LIG2        0.0233
     62    H        9.4390   14.1270   11.9870 H       2  LIG2        0.0233
     63    H       11.1660   14.0830   11.7280 H       2  LIG2        0.0233
     64    H       10.1370   14.9450   10.6090 H       2  LIG2        0.0233
     65    H        9.5280   17.6170    1.3160 H       2  LIG2        0.0561
     66    H        9.1710   16.0850    0.5710 H       2  LIG2        0.0561
     67    H       11.6360   16.8960    6.1190 H       2  LIG2        0.1524
     68    H        3.6330   21.9380   11.2330 H       2  LIG2        0.1423
     69    H        4.4120   22.4980    9.8230 H       2  LIG2        0.1423
     70    H       10.5020   19.6170    7.8720 H       2  LIG2        0.2099
@<TRIPOS>BOND
     1    66    25    1
     2    34    25    1
     3    34     1    1
     4    65    25    1
     5    25     2    1
     6    36     1    1
     7     1    37    1
     8     1     4    1
     9    39     2    1
    10     2     4    1
    11     2    38    1
    12     4    40    1
    13     4    29    1
    14    29     3    1
    15    47    11    1
    16     3    30    2
    17     3    26   am
    18    67    26    1
    19    11    13   ar
    20    11     9   ar
    21    49    13    1
    22    45     9    1
    23    26     5    1
    24    13    12   ar
    25     9     8   ar
    26    70    31    1
    27    12    48    1
    28    12    10   ar
    29     5    41    1
    30     5     6    1
    31     5     7    1
    32    42     6    1
    33     8     7    1
    34     8    10   ar
    35    31     6    1
    36    44     7    1
    37     6    14    1
    38     7    43    1
    39    58    22    1
    40    10    46    1
    41    33    35    2
    42    57    21    1
    43    22    21   ar
    44    22    17   ar
    45    21    20   ar
    46    69    28    1
    47    14    50    1
    48    14    51    1
    49    14    27    1
    50    35    17    1
    51    35    27    1
    52    35    32    2
    53    17    18   ar
    54    20    28    1
    55    20    19   ar
    56    28    68    1
    57    64    24    1
    58    27    15    1
    59    18    19   ar
    60    18    55    1
    61    19    56    1
    62    24    63    1
    63    24    62    1
    64    24    16    1
    65    54    16    1
    66    15    16    1
    67    15    52    1
    68    15    53    1
    69    16    23    1
    70    23    61    1
    71    23    60    1
    72    23    59    1
@<TRIPOS>MOLECULE
ligand_9d375644e6_1_run_16.pdb
 70 72 0 0 0
SMALL
GASTEIGER

@<TRIPOS>ATOM
      1    C        8.3020   15.2020   13.9260 C.3     2  LIG2        0.0848
      2    C        9.9800   16.6690   14.8570 C.3     2  LIG2        0.0101
      3    C       10.0030   15.7980   11.2250 C.2     2  LIG2        0.4009
      4    C        9.7510   15.6710   13.7220 C.3     2  LIG2        0.1299
      5    C       10.0960   16.8070    8.9540 C.3     2  LIG2        0.0573
      6    C       11.5740   16.5950    8.3740 C.3     2  LIG2        0.0882
      7    C        9.2820   18.0990    8.5130 C.3     2  LIG2       -0.0066
      8    C        7.8230   17.9840    8.8650 C.ar    2  LIG2       -0.0455
      9    C        6.8770   17.7700    7.8000 C.ar    2  LIG2       -0.0585
     10    C        7.3430   18.2590   10.2030 C.ar    2  LIG2       -0.0585
     11    C        5.4590   17.8660    8.0180 C.ar    2  LIG2       -0.0615
     12    C        5.9080   18.3380   10.4220 C.ar    2  LIG2       -0.0615
     13    C        4.9530   18.1460    9.3250 C.ar    2  LIG2       -0.0617
     14    C       11.7960   16.1990    6.8450 C.3     2  LIG2        0.0483
     15    C       11.3920   13.7670    7.3970 C.3     2  LIG2        0.0229
     16    C       12.8560   13.3530    7.3660 C.3     2  LIG2       -0.0323
     17    C       10.0790   15.1530    3.6800 C.ar    2  LIG2        0.1056
     18    C        9.2040   15.8400    2.7760 C.ar    2  LIG2       -0.0336
     19    C        9.5840   16.0030    1.4100 C.ar    2  LIG2       -0.0392
     20    C       10.8460   15.4910    0.9920 C.ar    2  LIG2        0.0247
     21    C       11.6620   14.7670    1.8660 C.ar    2  LIG2       -0.0392
     22    C       11.2750   14.6000    3.2140 C.ar    2  LIG2       -0.0336
     23    C       13.4660   13.1410    5.9660 C.3     2  LIG2       -0.0615
     24    C       13.7980   13.9720    8.4140 C.3     2  LIG2       -0.0615
     25    C        8.6560   16.7380   15.6300 C.3     2  LIG2        0.0513
     26    N       10.1540   16.8080   10.3970 N.am    2  LIG2       -0.2754
     27    N       11.1670   14.9360    6.3950 N.3     2  LIG2       -0.1738
     28    N       11.2070   15.5870   -0.2600 N.pl3   2  LIG2       -0.3580
     29    O        9.8630   16.3760   12.4850 O.3     2  LIG2       -0.4447
     30    O       10.1690   14.6590   10.9990 O.2     2  LIG2       -0.2265
     31    O       12.2770   17.7850    8.4840 O.3     2  LIG2       -0.3886
     32    O        8.9710   16.2350    5.6800 O.2     2  LIG2       -0.1528
     33    O        8.9020   13.8700    5.4180 O.2     2  LIG2       -0.1528
     34    O        7.6540   16.0950   14.8650 O.3     2  LIG2       -0.3760
     35    S        9.7330   15.0310    5.3490 S.O2    2  LIG2        0.0609
     36    H        8.2980   14.2050   14.3150 H       2  LIG2        0.0597
     37    H        7.7800   15.2130   12.9920 H       2  LIG2        0.0597
     38    H       10.2300   17.6310   14.4620 H       2  LIG2        0.0324
     39    H       10.7880   16.3660   15.4890 H       2  LIG2        0.0324
     40    H       10.4440   14.8560   13.7120 H       2  LIG2        0.0758
     41    H        9.5550   15.9910    8.5220 H       2  LIG2        0.0528
     42    H       11.8860   15.7550    8.9590 H       2  LIG2        0.0625
     43    H        9.3750   18.2230    7.4550 H       2  LIG2        0.0332
     44    H        9.6860   18.9420    9.0350 H       2  LIG2        0.0332
     45    H        7.2260   17.5410    6.8560 H       2  LIG2        0.0620
     46    H        8.0040   18.3950   10.9840 H       2  LIG2        0.0620
     47    H        4.8060   17.7320    7.2310 H       2  LIG2        0.0618
     48    H        5.5520   18.5340   11.3710 H       2  LIG2        0.0618
     49    H        3.9370   18.2120    9.4930 H       2  LIG2        0.0618
     50    H       12.8500   16.1150    6.6800 H       2  LIG2        0.0470
     51    H       11.3210   16.9730    6.2790 H       2  LIG2        0.0470
     52    H       11.1320   14.0870    8.3840 H       2  LIG2        0.0446
     53    H       10.7780   12.9350    7.1210 H       2  LIG2        0.0446
     54    H       12.7710   12.3570    7.7490 H       2  LIG2        0.0308
     55    H        8.3040   16.2160    3.1110 H       2  LIG2        0.0638
     56    H        8.9600   16.4810    0.7420 H       2  LIG2        0.0636
     57    H       12.5460   14.3550    1.5270 H       2  LIG2        0.0636
     58    H       11.8790   14.0660    3.8580 H       2  LIG2        0.0638
     59    H       13.5950   14.0890    5.4860 H       2  LIG2        0.0233
     60    H       12.8110   12.5310    5.3800 H       2  LIG2        0.0233
     61    H       14.4150   12.6570    6.0600 H       2  LIG2        0.0233
     62    H       13.9850   14.9960    8.1650 H       2  LIG2        0.0233
     63    H       14.7220   13.4340    8.4260 H       2  LIG2        0.0233
     64    H       13.3410   13.9180    9.3800 H       2  LIG2        0.0233
     65    H        8.3860   17.7610   15.7910 H       2  LIG2        0.0561
     66    H        8.7610   16.2550   16.5780 H       2  LIG2        0.0561
     67    H       10.3310   17.6810   10.8170 H       2  LIG2        0.1524
     68    H       10.6500   16.0920   -0.8950 H       2  LIG2        0.1423
     69    H       12.0370   15.1560   -0.5670 H       2  LIG2        0.1423
     70    H       12.6470   17.8610    9.3770 H       2  LIG2        0.2099
@<TRIPOS>BOND
     1    68    28    1
     2    69    28    1
     3    28    20    1
     4    56    19    1
     5    20    19   ar
     6    20    21   ar
     7    19    18   ar
     8    57    21    1
     9    21    22   ar
    10    18    55    1
    11    18    17   ar
    12    22    17   ar
    13    22    58    1
    14    17    35    1
    15    35    33    2
    16    35    32    2
    17    35    27    1
    18    60    23    1
    19    59    23    1
    20    23    61    1
    21    23    16    1
    22    51    14    1
    23    27    14    1
    24    27    15    1
    25    50    14    1
    26    14     6    1
    27    45     9    1
    28    53    15    1
    29    47    11    1
    30    16    15    1
    31    16    54    1
    32    16    24    1
    33    15    52    1
    34    43     7    1
    35     9    11   ar
    36     9     8   ar
    37    11    13   ar
    38    62    24    1
    39     6    31    1
    40     6     5    1
    41     6    42    1
    42    24    63    1
    43    24    64    1
    44    31    70    1
    45     7     8    1
    46     7     5    1
    47     7    44    1
    48    41     5    1
    49     8    10   ar
    50     5    26    1
    51    13    49    1
    52    13    12   ar
    53    10    12   ar
    54    10    46    1
    55    26    67    1
    56    26     3   am
    57    12    48    1
    58    30     3    2
    59     3    29    1
    60    29     4    1
    61    37     1    1
    62    40     4    1
    63     4     1    1
    64     4     2    1
    65     1    36    1
    66     1    34    1
    67    38     2    1
    68     2    39    1
    69     2    25    1
    70    34    25    1
    71    25    65    1
    72    25    66    1
